FoamFile
{
    version     2.0;
    format      ascii;
    class       dictionary;
    location    "constant";
    object      transportProperties;
}

phasea
{
    rho     rho [1 -3 0 0 0 0 0] 2650;
    nu      nu [0 2 -1 0 0 0 0] 1e-06;
    d       d [0 1 0 0 0 0 0] 0.0005;
    sF      sF [0 0 0 0 0 0 0] 1;
    hExp    hExp [0 0 0 0 0 0 0] 2.65;
}

phaseb
{
    rho     rho [1 -3 0 0 0 0 0] 1000;
    nu      nu [0 2 -1 0 0 0 0] 1e-06;
    d       d [0 1 0 0 0 0 0] 0.003;
    sF      sF [0 0 0 0 0 0 0] 0.5;
    hExp    hExp [0 0 0 0 0 0 0] 2.65;
}

phasec
{
    rho     rho [1 -3 0 0 0 0 0] 1;
    nu      nu [0 2 -1 0 0 0 0] 0.0;
    d       d [0 1 0 0 0 0 0] 0.0063;
    sF      sF [0 0 0 0 0 0 0] 1;
    hExp    hExp [0 0 0 0 0 0 0] 2.65;
}

transportModel    Newtonian;

nu                nu [0 2 -1 0 0 0 0] 1e-06;

nuMax             nuMax [0 2 -1 0 0 0 0] 100.0;

alphaSmall        alphaSmall [0 0 0 0 0 0 0] 1e-05;
